LTspice 26.0.1 for Windows
Circuit: C:\users\zosima\Documents\IDE\tp2\simulaciones\sim1\Draft2.net
Start Time: Sat Apr 25 04:03:54 2026
solver = Normal
Maximum thread count: 2
tnom = 27
temp = 27
method = trap
Direct Newton iteration succeeded in finding operating point.
Total elapsed time: 0.184 seconds.

Files loaded:
C:\users\zosima\Documents\IDE\tp2\simulaciones\sim1\Draft2.net
C:\users\zosima\AppData\Local\LTspice\lib\cmp\standard.bjt

