LTspice 26.0.1 for Windows
Circuit: C:\users\zosima\Documents\IDE\tp2\simulaciones\sim1\Draft1.net
Start Time: Wed Apr 22 12:17:58 2026
solver = Normal
Maximum thread count: 2
tnom = 27
temp = 27
method = trap
C:\users\zosima\Documents\IDE\tp2\simulaciones\sim1\Draft1.net(4): Missing value, assuming 0V @ DC.

VBE N002 0
^^^^^^^^^^
Total elapsed time: 0.213 seconds.

Files loaded:
C:\users\zosima\Documents\IDE\tp2\simulaciones\sim1\Draft1.net
C:\users\zosima\AppData\Local\LTspice\lib\cmp\standard.bjt

