LTspice 26.0.1 for Windows
Circuit: C:\users\zosima\Documents\IDE\tp2\simulaciones\sim2\Draft2.net
Start Time: Wed Apr 22 12:19:18 2026
solver = Normal
Maximum thread count: 2
tnom = 27
temp = 27
method = trap
C:\users\zosima\Documents\IDE\tp2\simulaciones\sim2\Draft2.net(5): Missing value, assuming 0V @ DC.

vce N001 0
^^^^^^^^^^
Total elapsed time: 2.113 seconds.

Files loaded:
C:\users\zosima\Documents\IDE\tp2\simulaciones\sim2\Draft2.net
C:\users\zosima\AppData\Local\LTspice\lib\cmp\standard.bjt

